/*--------------------------------*- C++ -*----------------------------------*\
| =========                 |                                                 |
| \\      /  F ield         | OpenFOAM: The Open Source CFD Toolbox           |
|  \\    /   O peration     | Version:  2306                                  |
|   \\  /    A nd           | Website:  www.openfoam.com                      |
|    \\/     M anipulation  |                                                 |
\*---------------------------------------------------------------------------*/
FoamFile
{
    version     2.0;
    format      ascii;
    arch        "LSB;label=32;scalar=64";
    class       polyBoundaryMesh;
    location    "constant/polyMesh";
    object      boundary;
}
// * * * * * * * * * * * * * * * * * * * * * * * * * * * * * * * * * * * * * //

10
(
    bottom
    {
        type            symmetryPlane;
        inGroups        1(symmetryPlane);
        nFaces          0;
        startFace       453;
    }
    inlet1
    {
        type            patch;
        nFaces          0;
        startFace       453;
    }
    outlet1
    {
        type            patch;
        nFaces          0;
        startFace       453;
    }
    top
    {
        type            patch;
        nFaces          0;
        startFace       453;
    }
    wall1
    {
        type            wall;
        inGroups        1(wall);
        nFaces          28;
        startFace       453;
    }
    bottomEmptyFaces
    {
        type            empty;
        inGroups        1(empty);
        nFaces          247;
        startFace       481;
    }
    topEmptyFaces
    {
        type            empty;
        inGroups        1(empty);
        nFaces          247;
        startFace       728;
    }
    procBoundary2to1
    {
        type            processor;
        inGroups        1(processor);
        nFaces          17;
        startFace       975;
        matchTolerance  0.0001;
        transform       unknown;
        myProcNo        2;
        neighbProcNo    1;
    }
    procBoundary2to3
    {
        type            processor;
        inGroups        1(processor);
        nFaces          10;
        startFace       992;
        matchTolerance  0.0001;
        transform       unknown;
        myProcNo        2;
        neighbProcNo    3;
    }
    procBoundary2to6
    {
        type            processor;
        inGroups        1(processor);
        nFaces          27;
        startFace       1002;
        matchTolerance  0.0001;
        transform       unknown;
        myProcNo        2;
        neighbProcNo    6;
    }
)

// ************************************************************************* //
