/*--------------------------------*- C++ -*----------------------------------*\
| =========                 |                                                 |
| \\      /  F ield         | OpenFOAM: The Open Source CFD Toolbox           |
|  \\    /   O peration     | Version:  2306                                  |
|   \\  /    A nd           | Website:  www.openfoam.com                      |
|    \\/     M anipulation  |                                                 |
\*---------------------------------------------------------------------------*/
FoamFile
{
    version     2.0;
    format      ascii;
    arch        "LSB;label=32;scalar=64";
    class       polyBoundaryMesh;
    location    "constant/polyMesh";
    object      boundary;
}
// * * * * * * * * * * * * * * * * * * * * * * * * * * * * * * * * * * * * * //

10
(
    bottom
    {
        type            symmetryPlane;
        inGroups        1(symmetryPlane);
        nFaces          0;
        startFace       543;
    }
    inlet1
    {
        type            patch;
        nFaces          0;
        startFace       543;
    }
    outlet1
    {
        type            patch;
        nFaces          0;
        startFace       543;
    }
    top
    {
        type            patch;
        nFaces          0;
        startFace       543;
    }
    wall1
    {
        type            wall;
        inGroups        1(wall);
        nFaces          22;
        startFace       543;
    }
    bottomEmptyFaces
    {
        type            empty;
        inGroups        1(empty);
        nFaces          290;
        startFace       565;
    }
    topEmptyFaces
    {
        type            empty;
        inGroups        1(empty);
        nFaces          290;
        startFace       855;
    }
    procBoundary1to0
    {
        type            processor;
        inGroups        1(processor);
        nFaces          17;
        startFace       1145;
        matchTolerance  0.0001;
        transform       unknown;
        myProcNo        1;
        neighbProcNo    0;
    }
    procBoundary1to2
    {
        type            processor;
        inGroups        1(processor);
        nFaces          17;
        startFace       1162;
        matchTolerance  0.0001;
        transform       unknown;
        myProcNo        1;
        neighbProcNo    2;
    }
    procBoundary1to5
    {
        type            processor;
        inGroups        1(processor);
        nFaces          18;
        startFace       1179;
        matchTolerance  0.0001;
        transform       unknown;
        myProcNo        1;
        neighbProcNo    5;
    }
)

// ************************************************************************* //
