/*--------------------------------*- C++ -*----------------------------------*\
| =========                 |                                                 |
| \\      /  F ield         | OpenFOAM: The Open Source CFD Toolbox           |
|  \\    /   O peration     | Version:  2306                                  |
|   \\  /    A nd           | Website:  www.openfoam.com                      |
|    \\/     M anipulation  |                                                 |
\*---------------------------------------------------------------------------*/
FoamFile
{
    version     2.0;
    format      ascii;
    arch        "LSB;label=32;scalar=64";
    class       polyBoundaryMesh;
    location    "constant/polyMesh";
    object      boundary;
}
// * * * * * * * * * * * * * * * * * * * * * * * * * * * * * * * * * * * * * //

9
(
    bottom
    {
        type            symmetryPlane;
        inGroups        1(symmetryPlane);
        nFaces          15;
        startFace       577;
    }
    inlet1
    {
        type            patch;
        nFaces          17;
        startFace       592;
    }
    outlet1
    {
        type            patch;
        nFaces          0;
        startFace       609;
    }
    top
    {
        type            patch;
        nFaces          0;
        startFace       609;
    }
    wall1
    {
        type            wall;
        inGroups        1(wall);
        nFaces          3;
        startFace       609;
    }
    bottomEmptyFaces
    {
        type            empty;
        inGroups        1(empty);
        nFaces          306;
        startFace       612;
    }
    topEmptyFaces
    {
        type            empty;
        inGroups        1(empty);
        nFaces          306;
        startFace       918;
    }
    procBoundary0to1
    {
        type            processor;
        inGroups        1(processor);
        nFaces          17;
        startFace       1224;
        matchTolerance  0.0001;
        transform       unknown;
        myProcNo        0;
        neighbProcNo    1;
    }
    procBoundary0to4
    {
        type            processor;
        inGroups        1(processor);
        nFaces          18;
        startFace       1241;
        matchTolerance  0.0001;
        transform       unknown;
        myProcNo        0;
        neighbProcNo    4;
    }
)

// ************************************************************************* //
