/*--------------------------------*- C++ -*----------------------------------*\
| =========                 |                                                 |
| \\      /  F ield         | OpenFOAM: The Open Source CFD Toolbox           |
|  \\    /   O peration     | Version:  2306                                  |
|   \\  /    A nd           | Website:  www.openfoam.com                      |
|    \\/     M anipulation  |                                                 |
\*---------------------------------------------------------------------------*/
FoamFile
{
    version     2.0;
    format      ascii;
    arch        "LSB;label=32;scalar=64";
    class       polyBoundaryMesh;
    location    "constant/polyMesh";
    object      boundary;
}
// * * * * * * * * * * * * * * * * * * * * * * * * * * * * * * * * * * * * * //

9
(
    bottom
    {
        type            symmetryPlane;
        inGroups        1(symmetryPlane);
        nFaces          0;
        startFace       400;
    }
    inlet1
    {
        type            patch;
        nFaces          0;
        startFace       400;
    }
    outlet1
    {
        type            patch;
        nFaces          7;
        startFace       400;
    }
    top
    {
        type            patch;
        nFaces          0;
        startFace       407;
    }
    wall1
    {
        type            wall;
        inGroups        1(wall);
        nFaces          33;
        startFace       407;
    }
    bottomEmptyFaces
    {
        type            empty;
        inGroups        1(empty);
        nFaces          221;
        startFace       440;
    }
    topEmptyFaces
    {
        type            empty;
        inGroups        1(empty);
        nFaces          221;
        startFace       661;
    }
    procBoundary3to2
    {
        type            processor;
        inGroups        1(processor);
        nFaces          10;
        startFace       882;
        matchTolerance  0.0001;
        transform       unknown;
        myProcNo        3;
        neighbProcNo    2;
    }
    procBoundary3to7
    {
        type            processor;
        inGroups        1(processor);
        nFaces          34;
        startFace       892;
        matchTolerance  0.0001;
        transform       unknown;
        myProcNo        3;
        neighbProcNo    7;
    }
)

// ************************************************************************* //
