/*--------------------------------*- C++ -*----------------------------------*\
| =========                 |                                                 |
| \\      /  F ield         | OpenFOAM: The Open Source CFD Toolbox           |
|  \\    /   O peration     | Version:  2306                                  |
|   \\  /    A nd           | Website:  www.openfoam.com                      |
|    \\/     M anipulation  |                                                 |
\*---------------------------------------------------------------------------*/
FoamFile
{
    version     2.0;
    format      ascii;
    arch        "LSB;label=32;scalar=64";
    class       polyBoundaryMesh;
    location    "constant/polyMesh";
    object      boundary;
}
// * * * * * * * * * * * * * * * * * * * * * * * * * * * * * * * * * * * * * //

10
(
    bottom
    {
        type            symmetryPlane;
        inGroups        1(symmetryPlane);
        nFaces          0;
        startFace       452;
    }
    inlet1
    {
        type            patch;
        nFaces          0;
        startFace       452;
    }
    outlet1
    {
        type            patch;
        nFaces          0;
        startFace       452;
    }
    top
    {
        type            patch;
        nFaces          19;
        startFace       452;
    }
    wall1
    {
        type            wall;
        inGroups        1(wall);
        nFaces          0;
        startFace       471;
    }
    bottomEmptyFaces
    {
        type            empty;
        inGroups        1(empty);
        nFaces          242;
        startFace       471;
    }
    topEmptyFaces
    {
        type            empty;
        inGroups        1(empty);
        nFaces          242;
        startFace       713;
    }
    procBoundary5to1
    {
        type            processor;
        inGroups        1(processor);
        nFaces          18;
        startFace       955;
        matchTolerance  0.0001;
        transform       unknown;
        myProcNo        5;
        neighbProcNo    1;
    }
    procBoundary5to4
    {
        type            processor;
        inGroups        1(processor);
        nFaces          14;
        startFace       973;
        matchTolerance  0.0001;
        transform       unknown;
        myProcNo        5;
        neighbProcNo    4;
    }
    procBoundary5to6
    {
        type            processor;
        inGroups        1(processor);
        nFaces          13;
        startFace       987;
        matchTolerance  0.0001;
        transform       unknown;
        myProcNo        5;
        neighbProcNo    6;
    }
)

// ************************************************************************* //
