/*--------------------------------*- C++ -*----------------------------------*\
| =========                 |                                                 |
| \\      /  F ield         | OpenFOAM: The Open Source CFD Toolbox           |
|  \\    /   O peration     | Version:  2306                                  |
|   \\  /    A nd           | Website:  www.openfoam.com                      |
|    \\/     M anipulation  |                                                 |
\*---------------------------------------------------------------------------*/
FoamFile
{
    version     2.0;
    format      ascii;
    arch        "LSB;label=32;scalar=64";
    class       polyBoundaryMesh;
    location    "constant/polyMesh";
    object      boundary;
}
// * * * * * * * * * * * * * * * * * * * * * * * * * * * * * * * * * * * * * //

10
(
    bottom
    {
        type            symmetryPlane;
        inGroups        1(symmetryPlane);
        nFaces          0;
        startFace       523;
    }
    inlet1
    {
        type            patch;
        nFaces          0;
        startFace       523;
    }
    outlet1
    {
        type            patch;
        nFaces          0;
        startFace       523;
    }
    top
    {
        type            patch;
        nFaces          22;
        startFace       523;
    }
    wall1
    {
        type            wall;
        inGroups        1(wall);
        nFaces          19;
        startFace       545;
    }
    bottomEmptyFaces
    {
        type            empty;
        inGroups        1(empty);
        nFaces          285;
        startFace       564;
    }
    topEmptyFaces
    {
        type            empty;
        inGroups        1(empty);
        nFaces          285;
        startFace       849;
    }
    procBoundary6to2
    {
        type            processor;
        inGroups        1(processor);
        nFaces          27;
        startFace       1134;
        matchTolerance  0.0001;
        transform       unknown;
        myProcNo        6;
        neighbProcNo    2;
    }
    procBoundary6to5
    {
        type            processor;
        inGroups        1(processor);
        nFaces          13;
        startFace       1161;
        matchTolerance  0.0001;
        transform       unknown;
        myProcNo        6;
        neighbProcNo    5;
    }
    procBoundary6to7
    {
        type            processor;
        inGroups        1(processor);
        nFaces          13;
        startFace       1174;
        matchTolerance  0.0001;
        transform       unknown;
        myProcNo        6;
        neighbProcNo    7;
    }
)

// ************************************************************************* //
