/*--------------------------------*- C++ -*----------------------------------*\
| =========                 |                                                 |
| \\      /  F ield         | OpenFOAM: The Open Source CFD Toolbox           |
|  \\    /   O peration     | Version:  2306                                  |
|   \\  /    A nd           | Website:  www.openfoam.com                      |
|    \\/     M anipulation  |                                                 |
\*---------------------------------------------------------------------------*/
FoamFile
{
    version     2.0;
    format      ascii;
    arch        "LSB;label=32;scalar=64";
    class       polyBoundaryMesh;
    location    "constant/polyMesh";
    object      boundary;
}
// * * * * * * * * * * * * * * * * * * * * * * * * * * * * * * * * * * * * * //

9
(
    bottom
    {
        type            symmetryPlane;
        inGroups        1(symmetryPlane);
        nFaces          0;
        startFace       421;
    }
    inlet1
    {
        type            patch;
        nFaces          13;
        startFace       421;
    }
    outlet1
    {
        type            patch;
        nFaces          0;
        startFace       434;
    }
    top
    {
        type            patch;
        nFaces          17;
        startFace       434;
    }
    wall1
    {
        type            wall;
        inGroups        1(wall);
        nFaces          0;
        startFace       451;
    }
    bottomEmptyFaces
    {
        type            empty;
        inGroups        1(empty);
        nFaces          226;
        startFace       451;
    }
    topEmptyFaces
    {
        type            empty;
        inGroups        1(empty);
        nFaces          226;
        startFace       677;
    }
    procBoundary4to0
    {
        type            processor;
        inGroups        1(processor);
        nFaces          18;
        startFace       903;
        matchTolerance  0.0001;
        transform       unknown;
        myProcNo        4;
        neighbProcNo    0;
    }
    procBoundary4to5
    {
        type            processor;
        inGroups        1(processor);
        nFaces          14;
        startFace       921;
        matchTolerance  0.0001;
        transform       unknown;
        myProcNo        4;
        neighbProcNo    5;
    }
)

// ************************************************************************* //
